Version 4
SHEET 1 880 680
SYMBOL PowerProducts\\LTC7061 80 160 R0
SYMATTR InstName U1
