Version 4
SHEET 1 1440 680
WIRE -64 -32 -1120 -32
WIRE -1120 64 -1120 -32
WIRE -176 64 -224 64
WIRE -112 64 -128 64
WIRE -64 64 -64 -32
WIRE -64 64 -112 64
WIRE 0 64 -64 64
WIRE 112 64 64 64
WIRE -224 128 -224 64
WIRE -224 128 -272 128
WIRE 112 128 112 64
WIRE 496 128 112 128
WIRE 496 160 496 128
WIRE -224 192 -224 128
WIRE -192 192 -224 192
WIRE -48 192 -128 192
WIRE 0 192 -48 192
WIRE 112 192 112 128
WIRE 112 192 64 192
WIRE -1120 272 -1120 144
WIRE -48 272 -48 192
WIRE -48 272 -1120 272
WIRE 496 304 496 240
WIRE -272 368 -272 128
WIRE 448 400 448 384
WIRE 448 400 160 400
WIRE 496 544 496 400
WIRE 160 576 160 480
FLAG -272 368 0
FLAG 496 544 0
FLAG 160 576 0
SYMBOL diode 0 80 R270
WINDOW 0 32 32 VTop 2
WINDOW 3 0 32 VBottom 2
SYMATTR InstName D2
SYMATTR Value RFL30TZ6S
SYMBOL voltage -1120 48 R0
WINDOW 123 0 0 Left 0
WINDOW 39 24 124 Left 2
SYMATTR SpiceLine Rser=0
SYMATTR InstName V1
SYMATTR Value SINE(0 320 50 0 0 0 1000)
SYMBOL diode 0 208 R270
WINDOW 0 32 32 VTop 2
WINDOW 3 0 32 VBottom 2
SYMATTR InstName D1
SYMATTR Value RFL30TZ6S
SYMBOL diode -192 208 R270
WINDOW 0 32 32 VTop 2
WINDOW 3 0 32 VBottom 2
SYMATTR InstName D3
SYMATTR Value RFL30TZ6S
SYMBOL diode -176 80 R270
WINDOW 0 32 32 VTop 2
WINDOW 3 0 32 VBottom 2
SYMATTR InstName D4
SYMATTR Value RFL30TZ6S
SYMBOL res 480 144 R0
SYMATTR InstName R1
SYMATTR Value 22
SYMBOL nmos 448 304 R0
SYMATTR InstName M1
SYMATTR Value STN3N45K3
SYMBOL voltage 160 384 R0
WINDOW 123 0 0 Left 0
WINDOW 39 0 0 Left 0
SYMATTR InstName V2
SYMATTR Value PULSE(0 20 0 10n 10n 500u 1m 1000)
TEXT 200 40 Left 2 !.tran 0.1
TEXT -120 -288 Left 2 ;# .step param Rload list 10 15 22 24 26 28
